
OS:Version,
  {91242a31-a51f-41c2-be95-98dcaaf80a8c}, !- Handle
  2.1.0;                                  !- Version Identifier

OS:Site,
  {12c2abec-3cad-4298-b4b4-430bc75d6bbf}, !- Handle
  Miami Intl Ap_FL_USA,                   !- Name
  25.82,                                  !- Latitude {deg}
  -80.3,                                  !- Longitude {deg}
  -5,                                     !- Time Zone {hr}
  11,                                     !- Elevation {m}
  City;                                   !- Terrain

OS:SimulationControl,
  {e032c526-1447-4e09-8941-ffa0459b9391}, !- Handle
  Yes,                                    !- Do Zone Sizing Calculation
  Yes,                                    !- Do System Sizing Calculation
  Yes,                                    !- Do Plant Sizing Calculation
  No,                                     !- Run Simulation for Sizing Periods
  Yes,                                    !- Run Simulation for Weather File Run Periods
  0.04,                                   !- Loads Convergence Tolerance Value
  0.2,                                    !- Temperature Convergence Tolerance Value {deltaC}
  FullInteriorAndExterior,                !- Solar Distribution
  25,                                     !- Maximum Number of Warmup Days
  6;                                      !- Minimum Number of Warmup Days

OS:Surface,
  {f232418f-01eb-42e1-848b-79dc58747cb8}, !- Handle
  Room_4_Mult19_Flr_3_Wall_North,         !- Name
  Wall,                                   !- Surface Type
  ,                                       !- Construction Name
  {9ed39cce-0061-4e25-a59b-4d3c6fe4c78f}, !- Space Name
  Outdoors,                               !- Outside Boundary Condition
  ,                                       !- Outside Boundary Condition Object
  SunExposed,                             !- Sun Exposure
  WindExposed,                            !- Wind Exposure
  ,                                       !- View Factor to Ground
  ,                                       !- Number of Vertices
  14.021, 22.86, 10.056,                  !- X,Y,Z Vertex 1 {m}
  14.021, 22.86, 7.008,                   !- X,Y,Z Vertex 2 {m}
  10.363, 22.86, 7.008,                   !- X,Y,Z Vertex 3 {m}
  10.363, 22.86, 10.056;                  !- X,Y,Z Vertex 4 {m}

OS:Connection,
  {bc8969aa-4683-48b9-a1ea-7545d4ae538b}, !- Handle
  {00ea9e6f-f56f-44c4-b684-1127bee7c41c}, !- Name
  ,                                       !- Source Object
  11,                                     !- Outlet Port
  ,                                       !- Target Object
  2;                                      !- Inlet Port

OS:Space,
  {9ed39cce-0061-4e25-a59b-4d3c6fe4c78f}, !- Handle
  Room_4_Mult19_Flr_3,                    !- Name
  {96ba035a-e353-4ff0-b4fd-97e2be5d3da8}, !- Space Type Name
  ,                                       !- Default Construction Set Name
  ,                                       !- Default Schedule Set Name
  0,                                      !- Direction of Relative North {deg}
  0,                                      !- X Origin {m}
  0,                                      !- Y Origin {m}
  0,                                      !- Z Origin {m}
  {076b885b-e8c0-407a-9af1-01e61241dd52}, !- Building Story Name
  {1daff4c7-ef6d-45f7-967c-f068337b417d}, !- Thermal Zone Name
  Yes;                                    !- Part of Total Floor Area

OS:Connection,
  {ed133cc7-7e13-4061-b64c-eed3db836da6}, !- Handle
  {61a53aec-d14c-4724-88c0-39d961e5fa87}, !- Name
  ,                                       !- Source Object
  11,                                     !- Outlet Port
  ,                                       !- Target Object
  2;                                      !- Inlet Port

OS:Space,
  {1dca28a2-4d33-4a34-beaa-caab194b9a4e}, !- Handle
  Room_6_Flr_3,                           !- Name
  {ae1ae4d6-fd54-4729-8ee9-473cd7b95a45}, !- Space Type Name
  ,                                       !- Default Construction Set Name
  ,                                       !- Default Schedule Set Name
  0,                                      !- Direction of Relative North {deg}
  0,                                      !- X Origin {m}
  0,                                      !- Y Origin {m}
  0,                                      !- Z Origin {m}
  {076b885b-e8c0-407a-9af1-01e61241dd52}, !- Building Story Name
  {811ae611-f78f-450e-b6d6-98d19c8cebfb}, !- Thermal Zone Name
  Yes;                                    !- Part of Total Floor Area

OS:Surface,
  {00d4c0a4-1fc4-4c5e-aa2f-2004e5912d12}, !- Handle
  Retail_1_Flr_1_Ceiling,                 !- Name
  RoofCeiling,                            !- Surface Type
  ,                                       !- Construction Name
  {d4a4e42f-8d93-49ac-ad87-6d44ac2e6c0e}, !- Space Name
  Outdoors,                               !- Outside Boundary Condition
  ,                                       !- Outside Boundary Condition Object
  SunExposed,                             !- Sun Exposure
  WindExposed,                            !- Wind Exposure
  ,                                       !- View Factor to Ground
  ,                                       !- Number of Vertices
  11.582, 0, 3.9624,                      !- X,Y,Z Vertex 1 {m}
  11.582, 5.791, 3.9624,                  !- X,Y,Z Vertex 2 {m}
  0, 5.791, 3.9624,                       !- X,Y,Z Vertex 3 {m}
  0, 0, 3.9624;                           !- X,Y,Z Vertex 4 {m}

OS:Connection,
  {131cc259-557d-4ee7-9824-931c4b9cbd3e}, !- Handle
  {a5602e91-63a8-4b8e-bd52-a71ded1eee51}, !- Name
  ,                                       !- Source Object
  11,                                     !- Outlet Port
  ,                                       !- Target Object
  2;                                      !- Inlet Port

OS:Space,
  {d4a4e42f-8d93-49ac-ad87-6d44ac2e6c0e}, !- Handle
  Retail_1_Flr_1,                         !- Name
  {c78b0b67-35d1-4f05-ac42-756eee4c2551}, !- Space Type Name
  ,                                       !- Default Construction Set Name
  ,                                       !- Default Schedule Set Name
  0,                                      !- Direction of Relative North {deg}
  0,                                      !- X Origin {m}
  0,                                      !- Y Origin {m}
  0,                                      !- Z Origin {m}
  {f441f7c6-603e-40d0-a682-50192ef2b0a9}, !- Building Story Name
  {454aeeef-3896-44d0-9fb3-1128465cbc33}, !- Thermal Zone Name
  Yes;                                    !- Part of Total Floor Area

OS:Connection,
  {cae85aa5-a97a-4de4-aaaa-1f8e7a8b4d38}, !- Handle
  {e30e2401-f8e8-4b5a-9131-dbcb2a7e9ace}, !- Name
  ,                                       !- Source Object
  11,                                     !- Outlet Port
  ,                                       !- Target Object
  2;                                      !- Inlet Port

OS:Space,
  {faef36fd-3157-4f01-bd01-dd0647fc5b3e}, !- Handle
  Room_3_Mult19_Flr_3,                    !- Name
  {96ba035a-e353-4ff0-b4fd-97e2be5d3da8}, !- Space Type Name
  ,                                       !- Default Construction Set Name
  ,                                       !- Default Schedule Set Name
  0,                                      !- Direction of Relative North {deg}
  0,                                      !- X Origin {m}
  0,                                      !- Y Origin {m}
  0,                                      !- Z Origin {m}
  {076b885b-e8c0-407a-9af1-01e61241dd52}, !- Building Story Name
  {99127b51-c53a-4121-80bd-35a741e261bc}, !- Thermal Zone Name
  Yes;                                    !- Part of Total Floor Area

OS:Surface,
  {e75da7ff-176c-4860-8346-527e1ad7c21b}, !- Handle
  Lobby_Flr_1_Floor_2,                    !- Name
  Floor,                                  !- Surface Type
  ,                                       !- Construction Name
  {9729522f-3e67-44fd-ba42-f2dfa1d6fd54}, !- Space Name
  Surface,                                !- Outside Boundary Condition
  {1552e9e5-1321-4853-9656-f3f82eaf576f}, !- Outside Boundary Condition Object
  NoSun,                                  !- Sun Exposure
  NoWind,                                 !- Wind Exposure
  ,                                       !- View Factor to Ground
  ,                                       !- Number of Vertices
  81.991, 22.86, 0,                       !- X,Y,Z Vertex 1 {m}
  81.991, 5.791, 0,                       !- X,Y,Z Vertex 2 {m}
  53.95, 5.791, 0,                        !- X,Y,Z Vertex 3 {m}
  53.95, 12.497, 0,                       !- X,Y,Z Vertex 4 {m}
  78.943, 12.497, 0,                      !- X,Y,Z Vertex 5 {m}
  78.943, 22.86, 0;                       !- X,Y,Z Vertex 6 {m}

OS:Connection,
  {29ec9387-d343-4811-a4fb-6089b7064a7d}, !- Handle
  {22be5082-4684-4ab9-9ffa-9869881759ed}, !- Name
  ,                                       !- Source Object
  11,                                     !- Outlet Port
  ,                                       !- Target Object
  2;                                      !- Inlet Port

OS:Space,
  {9729522f-3e67-44fd-ba42-f2dfa1d6fd54}, !- Handle
  Lobby_Flr_1,                            !- Name
  {a49d3d76-9860-4f3f-a46c-7b4076148291}, !- Space Type Name
  ,                                       !- Default Construction Set Name
  ,                                       !- Default Schedule Set Name
  0,                                      !- Direction of Relative North {deg}
  0,                                      !- X Origin {m}
  0,                                      !- Y Origin {m}
  0,                                      !- Z Origin {m}
  {f441f7c6-603e-40d0-a682-50192ef2b0a9}, !- Building Story Name
  {9eb308fc-0e4e-4395-a68f-9e00fb0b2549}, !- Thermal Zone Name
  Yes;                                    !- Part of Total Floor Area

OS:Surface,
  {576e7e2f-4392-4bd1-8a79-b07f4eaa7ab9}, !- Handle
  Room_2_Flr_6_Wall_East,                 !- Name
  Wall,                                   !- Surface Type
  {2912b8bb-0542-4d7e-9918-94cbe45aaaf0}, !- Construction Name
  {0876245e-2114-48a5-bc47-3641589c67cf}, !- Space Name
  Adiabatic,                              !- Outside Boundary Condition
  ,                                       !- Outside Boundary Condition Object
  NoSun,                                  !- Sun Exposure
  NoWind,                                 !- Wind Exposure
  ,                                       !- View Factor to Ground
  ,                                       !- Number of Vertices
  4.572, 14.326, 19.2,                    !- X,Y,Z Vertex 1 {m}
  4.572, 14.326, 16.152,                  !- X,Y,Z Vertex 2 {m}
  4.572, 22.86, 16.152,                   !- X,Y,Z Vertex 3 {m}
  4.572, 22.86, 19.2;                     !- X,Y,Z Vertex 4 {m}

OS:Connection,
  {bc625ba4-78e0-4461-b352-499b6eea061b}, !- Handle
  {834ab286-5cd7-4934-9a93-5fb4a701cd5b}, !- Name
  ,                                       !- Source Object
  11,                                     !- Outlet Port
  ,                                       !- Target Object
  2;                                      !- Inlet Port

OS:Space,
  {0876245e-2114-48a5-bc47-3641589c67cf}, !- Handle
  Room_2_Flr_6,                           !- Name
  {6cba3785-1ec8-438e-a84d-e29143d203e4}, !- Space Type Name
  ,                                       !- Default Construction Set Name
  ,                                       !- Default Schedule Set Name
  0,                                      !- Direction of Relative North {deg}
  0,                                      !- X Origin {m}
  0,                                      !- Y Origin {m}
  0,                                      !- Z Origin {m}
  {51a09a20-91f6-4564-b083-f19660f2cf39}, !- Building Story Name
  {bfda8e4d-95ee-47c3-b147-bd91495471a4}, !- Thermal Zone Name
  Yes;                                    !- Part of Total Floor Area

OS:Surface,
  {031a902d-c6a0-40ca-9145-fe8ecd218fb2}, !- Handle
  Kitchen_Flr_6_Wall_2_West,              !- Name
  Wall,                                   !- Surface Type
  ,                                       !- Construction Name
  {6eb0e3ec-cf12-4336-a572-9ae482a6e322}, !- Space Name
  Surface,                                !- Outside Boundary Condition
  {1a4d7b44-1b26-4f53-b5cf-7c8f32a83943}, !- Outside Boundary Condition Object
  NoSun,                                  !- Sun Exposure
  NoWind,                                 !- Wind Exposure
  ,                                       !- View Factor to Ground
  ,                                       !- Number of Vertices
  79.553, 22.86, 19.2,                    !- X,Y,Z Vertex 1 {m}
  79.553, 22.86, 16.152,                  !- X,Y,Z Vertex 2 {m}
  79.553, 12.497, 16.152,                 !- X,Y,Z Vertex 3 {m}
  79.553, 12.497, 19.2;                   !- X,Y,Z Vertex 4 {m}

OS:Connection,
  {2bc90676-e313-46bc-9391-d4d4fe3b7f7c}, !- Handle
  {b96bfcb3-5ffc-4faa-b220-c89917a6071f}, !- Name
  ,                                       !- Source Object
  11,                                     !- Outlet Port
  ,                                       !- Target Object
  2;                                      !- Inlet Port

OS:Space,
  {6eb0e3ec-cf12-4336-a572-9ae482a6e322}, !- Handle
  Kitchen_Flr_6,                          !- Name
  {ae593841-cb7e-4d69-be6a-c7b8eece2fca}, !- Space Type Name
  ,                                       !- Default Construction Set Name
  ,                                       !- Default Schedule Set Name
  0,                                      !- Direction of Relative North {deg}
  0,                                      !- X Origin {m}
  0,                                      !- Y Origin {m}
  0,                                      !- Z Origin {m}
  {51a09a20-91f6-4564-b083-f19660f2cf39}, !- Building Story Name
  {3f2fbee4-6dab-4005-9ab2-581894eb5f57}, !- Thermal Zone Name
  Yes;                                    !- Part of Total Floor Area

OS:SubSurface,
  {e41762ce-ac31-49c3-8b6b-bf509af3139f}, !- Handle
  Corridor_Flr_6_Wall_2_South_Window,     !- Name
  FixedWindow,                            !- Sub Surface Type
  {edf03d31-efcd-4a05-87dd-972e0edb5866}, !- Construction Name
  {02fa6170-35a0-495c-84a6-948d593d7fe2}, !- Surface Name
  ,                                       !- Outside Boundary Condition Object
  ,                                       !- View Factor to Ground
  ,                                       !- Shading Control Name
  ,                                       !- Frame and Divider Name
  1,                                      !- Multiplier
  ,                                       !- Number of Vertices
  66.416, 5.791, 18.484,                  !- X,Y,Z Vertex 1 {m}
  66.416, 5.791, 17.264,                  !- X,Y,Z Vertex 2 {m}
  80.498, 5.791, 17.264,                  !- X,Y,Z Vertex 3 {m}
  80.498, 5.791, 18.484;                  !- X,Y,Z Vertex 4 {m}

OS:Surface,
  {02fa6170-35a0-495c-84a6-948d593d7fe2}, !- Handle
  Corridor_Flr_6_Wall_2_South,            !- Name
  Wall,                                   !- Surface Type
  ,                                       !- Construction Name
  {b7c24b2e-16ab-463a-ab8a-6b360ce66310}, !- Space Name
  Outdoors,                               !- Outside Boundary Condition
  ,                                       !- Outside Boundary Condition Object
  SunExposed,                             !- Sun Exposure
  WindExposed,                            !- Wind Exposure
  ,                                       !- View Factor to Ground
  ,                                       !- Number of Vertices
  64.922, 5.791, 19.2,                    !- X,Y,Z Vertex 1 {m}
  64.922, 5.791, 16.152,                  !- X,Y,Z Vertex 2 {m}
  81.991, 5.791, 16.152,                  !- X,Y,Z Vertex 3 {m}
  81.991, 5.791, 19.2;                    !- X,Y,Z Vertex 4 {m}

OS:Connection,
  {7cd9799d-5919-42c2-8b55-354e157acacb}, !- Handle
  {b9c1cf3e-f29c-401e-a1c5-5866169589e2}, !- Name
  ,                                       !- Source Object
  11,                                     !- Outlet Port
  ,                                       !- Target Object
  2;                                      !- Inlet Port

OS:Space,
  {b7c24b2e-16ab-463a-ab8a-6b360ce66310}, !- Handle
  Corridor_Flr_6,                         !- Name
  {dce46475-8ed7-41db-8bf5-cbb2bda63aa7}, !- Space Type Name
  ,                                       !- Default Construction Set Name
  ,                                       !- Default Schedule Set Name
  0,                                      !- Direction of Relative North {deg}
  0,                                      !- X Origin {m}
  0,                                      !- Y Origin {m}
  0,                                      !- Z Origin {m}
  {51a09a20-91f6-4564-b083-f19660f2cf39}, !- Building Story Name
  {e9953c67-b85d-4610-b6da-be832c9e7bce}, !- Thermal Zone Name
  Yes;                                    !- Part of Total Floor Area

OS:Connection,
  {7700f951-1613-4b47-b0a1-9393130fea01}, !- Handle
  {bc460e38-34ca-4051-b628-672128f634a1}, !- Name
  ,                                       !- Source Object
  11,                                     !- Outlet Port
  ,                                       !- Target Object
  2;                                      !- Inlet Port

OS:Space,
  {4cc47b56-fc37-418c-9ef3-f631924d73b1}, !- Handle
  Room_1_Flr_3,                           !- Name
  {ae1ae4d6-fd54-4729-8ee9-473cd7b95a45}, !- Space Type Name
  ,                                       !- Default Construction Set Name
  ,                                       !- Default Schedule Set Name
  0,                                      !- Direction of Relative North {deg}
  0,                                      !- X Origin {m}
  0,                                      !- Y Origin {m}
  0,                                      !- Z Origin {m}
  {076b885b-e8c0-407a-9af1-01e61241dd52}, !- Building Story Name
  {54f53364-f6fd-4af7-b9b8-f0857db0b897}, !- Thermal Zone Name
  Yes;                                    !- Part of Total Floor Area

OS:Surface,
  {89885810-afaf-47dd-8058-c9096d3a1df4}, !- Handle
  Banquet_Flr_6_Ceiling,                  !- Name
  RoofCeiling,                            !- Surface Type
  ,                                       !- Construction Name
  {8809807f-1a5d-460c-8658-aed4576309dc}, !- Space Name
  Outdoors,                               !- Outside Boundary Condition
  ,                                       !- Outside Boundary Condition Object
  SunExposed,                             !- Sun Exposure
  WindExposed,                            !- Wind Exposure
  ,                                       !- View Factor to Ground
  ,                                       !- Number of Vertices
  42.367, 12.497, 19.2,                   !- X,Y,Z Vertex 1 {m}
  42.367, 22.86, 19.2,                    !- X,Y,Z Vertex 2 {m}
  10.363, 22.86, 19.2,                    !- X,Y,Z Vertex 3 {m}
  10.363, 12.497, 19.2;                   !- X,Y,Z Vertex 4 {m}

OS:Connection,
  {16133a9b-f57a-4278-aeb0-9ab4cabcea32}, !- Handle
  {862a6948-04e1-45f4-8d57-88d511f39097}, !- Name
  ,                                       !- Source Object
  11,                                     !- Outlet Port
  ,                                       !- Target Object
  2;                                      !- Inlet Port

OS:Space,
  {8809807f-1a5d-460c-8658-aed4576309dc}, !- Handle
  Banquet_Flr_6,                          !- Name
  {49d8e55c-d5c8-441b-8e71-659ed3d2bc7e}, !- Space Type Name
  ,                                       !- Default Construction Set Name
  ,                                       !- Default Schedule Set Name
  0,                                      !- Direction of Relative North {deg}
  0,                                      !- X Origin {m}
  0,                                      !- Y Origin {m}
  0,                                      !- Z Origin {m}
  {51a09a20-91f6-4564-b083-f19660f2cf39}, !- Building Story Name
  {416c8df5-6a55-4a38-a400-c25118e8615f}, !- Thermal Zone Name
  Yes;                                    !- Part of Total Floor Area

OS:Surface,
  {bd6f17c1-d9ac-4443-a0e7-ba77fc0e338f}, !- Handle
  Room_2_Flr_3_Wall_North,                !- Name
  Wall,                                   !- Surface Type
  ,                                       !- Construction Name
  {74debf16-34cc-4713-a780-bf4e20bce7c1}, !- Space Name
  Outdoors,                               !- Outside Boundary Condition
  ,                                       !- Outside Boundary Condition Object
  SunExposed,                             !- Sun Exposure
  WindExposed,                            !- Wind Exposure
  ,                                       !- View Factor to Ground
  ,                                       !- Number of Vertices
  4.572, 22.86, 10.056,                   !- X,Y,Z Vertex 1 {m}
  4.572, 22.86, 7.008,                    !- X,Y,Z Vertex 2 {m}
  0, 22.86, 7.008,                        !- X,Y,Z Vertex 3 {m}
  0, 22.86, 10.056;                       !- X,Y,Z Vertex 4 {m}

OS:Connection,
  {1e990557-9825-406f-883b-eb083e607180}, !- Handle
  {9c2b1e9f-1e74-432f-bb17-d8265f2b4c6c}, !- Name
  ,                                       !- Source Object
  11,                                     !- Outlet Port
  ,                                       !- Target Object
  2;                                      !- Inlet Port

OS:Space,
  {74debf16-34cc-4713-a780-bf4e20bce7c1}, !- Handle
  Room_2_Flr_3,                           !- Name
  {ae1ae4d6-fd54-4729-8ee9-473cd7b95a45}, !- Space Type Name
  ,                                       !- Default Construction Set Name
  ,                                       !- Default Schedule Set Name
  0,                                      !- Direction of Relative North {deg}
  0,                                      !- X Origin {m}
  0,                                      !- Y Origin {m}
  0,                                      !- Z Origin {m}
  {076b885b-e8c0-407a-9af1-01e61241dd52}, !- Building Story Name
  {1856c0e8-16d9-4a3b-882f-ef5a141e5a5e}, !- Thermal Zone Name
  Yes;                                    !- Part of Total Floor Area

OS:SubSurface,
  {119c16c3-7f20-4e26-b678-31fa455fe8d0}, !- Handle
  Kitchen_Flr_6_Wall_North_Window,        !- Name
  FixedWindow,                            !- Sub Surface Type
  {edf03d31-efcd-4a05-87dd-972e0edb5866}, !- Construction Name
  {fc76430c-91aa-4a98-a079-50d3f1df6ecc}, !- Surface Name
  ,                                       !- Outside Boundary Condition Object
  ,                                       !- View Factor to Ground
  ,                                       !- Shading Control Name
  ,                                       !- Frame and Divider Name
  1,                                      !- Multiplier
  ,                                       !- Number of Vertices
  86.163, 22.86, 18.484,                  !- X,Y,Z Vertex 1 {m}
  86.163, 22.86, 17.264,                  !- X,Y,Z Vertex 2 {m}
  82.391, 22.86, 17.264,                  !- X,Y,Z Vertex 3 {m}
  82.391, 22.86, 18.484;                  !- X,Y,Z Vertex 4 {m}

OS:Surface,
  {fc76430c-91aa-4a98-a079-50d3f1df6ecc}, !- Handle
  Kitchen_Flr_6_Wall_North,               !- Name
  Wall,                                   !- Surface Type
  ,                                       !- Construction Name
  {6eb0e3ec-cf12-4336-a572-9ae482a6e322}, !- Space Name
  Outdoors,                               !- Outside Boundary Condition
  ,                                       !- Outside Boundary Condition Object
  SunExposed,                             !- Sun Exposure
  WindExposed,                            !- Wind Exposure
  ,                                       !- View Factor to Ground
  ,                                       !- Number of Vertices
  86.563, 22.86, 19.2,                    !- X,Y,Z Vertex 1 {m}
  86.563, 22.86, 16.152,                  !- X,Y,Z Vertex 2 {m}
  79.553, 22.86, 16.152,                  !- X,Y,Z Vertex 3 {m}
  79.553, 22.86, 19.2;                    !- X,Y,Z Vertex 4 {m}

OS:Surface,
  {eed9e794-42dd-4187-905d-7469d2ebe6a3}, !- Handle
  Corridor_Flr_6_Wall_2_East,             !- Name
  Wall,                                   !- Surface Type
  ,                                       !- Construction Name
  {b7c24b2e-16ab-463a-ab8a-6b360ce66310}, !- Space Name
  Surface,                                !- Outside Boundary Condition
  {7f77f34a-183c-4842-8204-1ae3302f347c}, !- Outside Boundary Condition Object
  NoSun,                                  !- Sun Exposure
  NoWind,                                 !- Wind Exposure
  ,                                       !- View Factor to Ground
  ,                                       !- Number of Vertices
  47.549, 12.497, 19.2,                   !- X,Y,Z Vertex 1 {m}
  47.549, 12.497, 16.152,                 !- X,Y,Z Vertex 2 {m}
  47.549, 22.86, 16.152,                  !- X,Y,Z Vertex 3 {m}
  47.549, 22.86, 19.2;                    !- X,Y,Z Vertex 4 {m}

OS:Connection,
  {2cdc5106-ea33-4f08-a85c-cd95ba8a8078}, !- Handle
  {ca75261b-07ec-4f3a-9ee1-24661af0e6a6}, !- Name
  ,                                       !- Source Object
  11,                                     !- Outlet Port
  ,                                       !- Target Object
  2;                                      !- Inlet Port

OS:Space,
  {34cd0879-37f2-479e-bf95-00a865181f3a}, !- Handle
  Cafe_Flr_1,                             !- Name
  {60d06a7c-a4de-4791-99e5-ca0f99075acb}, !- Space Type Name
  ,                                       !- Default Construction Set Name
  ,                                       !- Default Schedule Set Name
  0,                                      !- Direction of Relative North {deg}
  0,                                      !- X Origin {m}
  0,                                      !- Y Origin {m}
  0,                                      !- Z Origin {m}
  {f441f7c6-603e-40d0-a682-50192ef2b0a9}, !- Building Story Name
  {a7401336-53f6-4d52-b4d0-9ee6a78188a3}, !- Thermal Zone Name
  Yes;                                    !- Part of Total Floor Area

OS:Surface,
  {1bac5371-274e-4893-9da0-b644c1907c0f}, !- Handle
  Cafe_Flr_1_Wall_1_North,                !- Name
  Wall,                                   !- Surface Type
  ,                                       !- Construction Name
  {34cd0879-37f2-479e-bf95-00a865181f3a}, !- Space Name
  Surface,                                !- Outside Boundary Condition
  {b88a94e0-28dd-4691-b321-bea2ef138731}, !- Outside Boundary Condition Object
  NoSun,                                  !- Sun Exposure
  NoWind,                                 !- Wind Exposure
  ,                                       !- View Factor to Ground
  ,                                       !- Number of Vertices
  81.991, 5.791, 3.9624,                  !- X,Y,Z Vertex 1 {m}
  81.991, 5.791, 0,                       !- X,Y,Z Vertex 2 {m}
  53.95, 5.791, 0,                        !- X,Y,Z Vertex 3 {m}
  53.95, 5.791, 3.9624;                   !- X,Y,Z Vertex 4 {m}

OS:SubSurface,
  {b0cf89ea-5054-4113-a461-7d968b586fa1}, !- Handle
  Corridor_Flr_6_Wall_2_North_Window,     !- Name
  FixedWindow,                            !- Sub Surface Type
  {edf03d31-efcd-4a05-87dd-972e0edb5866}, !- Construction Name
  {2f39d77e-47f9-435b-99dc-b3e05e06bbfd}, !- Surface Name
  ,                                       !- Outside Boundary Condition Object
  ,                                       !- View Factor to Ground
  ,                                       !- Shading Control Name
  ,                                       !- Frame and Divider Name
  1,                                      !- Multiplier
  ,                                       !- Number of Vertices
  47.095, 22.86, 18.484,                  !- X,Y,Z Vertex 1 {m}
  47.095, 22.86, 17.264,                  !- X,Y,Z Vertex 2 {m}
  42.821, 22.86, 17.264,                  !- X,Y,Z Vertex 3 {m}
  42.821, 22.86, 18.484;                  !- X,Y,Z Vertex 4 {m}

OS:Surface,
  {2f39d77e-47f9-435b-99dc-b3e05e06bbfd}, !- Handle
  Corridor_Flr_6_Wall_2_North,            !- Name
  Wall,                                   !- Surface Type
  ,                                       !- Construction Name
  {b7c24b2e-16ab-463a-ab8a-6b360ce66310}, !- Space Name
  Outdoors,                               !- Outside Boundary Condition
  ,                                       !- Outside Boundary Condition Object
  SunExposed,                             !- Sun Exposure
  WindExposed,                            !- Wind Exposure
  ,                                       !- View Factor to Ground
  ,                                       !- Number of Vertices
  47.549, 22.86, 19.2,                    !- X,Y,Z Vertex 1 {m}
  47.549, 22.86, 16.152,                  !- X,Y,Z Vertex 2 {m}
  42.367, 22.86, 16.152,                  !- X,Y,Z Vertex 3 {m}
  42.367, 22.86, 19.2;                    !- X,Y,Z Vertex 4 {m}

OS:Surface,
  {4fbd5d4b-302e-435e-b4d5-b37c5e95654f}, !- Handle
  Mech_Flr_1_Wall_West,                   !- Name
  Wall,                                   !- Surface Type
  ,                                       !- Construction Name
  {8612e933-8099-41f8-8cf0-31c89c876aeb}, !- Space Name
  Surface,                                !- Outside Boundary Condition
  {aacae399-8cda-4a31-82d5-c3f6a85c1c53}, !- Outside Boundary Condition Object
  NoSun,                                  !- Sun Exposure
  NoWind,                                 !- Wind Exposure
  ,                                       !- View Factor to Ground
  ,                                       !- Number of Vertices
  53.95, 22.86, 3.9624,                   !- X,Y,Z Vertex 1 {m}